92

C         -8.20989        0.77633        0.01732
C         -7.10613        1.57917        0.29955
C         -8.04932       -0.59683       -0.16374
H         -9.19385        1.22036       -0.06180
C         -5.83095        1.01800        0.40475
H         -7.23823        2.64466        0.43838
C         -6.77672       -1.18040       -0.06130
H         -8.91819       -1.20604       -0.38311
C         -5.64187       -0.36908        0.22864
H         -5.01581        1.68097        0.62256
C         -6.62765       -2.56669       -0.24562
C         -4.36979       -0.99804        0.32880
C         -5.37042       -3.16469       -0.14460
H         -7.48920       -3.18533       -0.46797
C         -4.25670       -2.36563        0.14554
H         -5.29146       -4.22957       -0.29267
C         -2.99094       -0.39044        0.62942
C         -2.98726        0.20772        2.05385
H         -3.62834        1.10109        2.14722
H         -1.98613        0.49186        2.39978
H         -3.35592       -0.54987        2.77943
C         -2.12212       -1.65386        0.58875
C         -2.58491        0.57180       -0.50611
H         -3.20193        1.48741       -0.53023
H         -2.69658        0.06075       -1.48718
H         -1.53417        0.88075       -0.45079
N         -2.92453       -2.79102        0.28480
C         -2.45315       -4.16845        0.14619
C         -0.78141       -1.75344        0.82496
C          0.20418       -0.68095        1.16483
H         -0.34564       -2.73908        0.78524
C         -1.53175       -4.31359       -1.03967
H         -3.29007       -4.86934       -0.01748
H         -1.96202       -4.48462        1.09171
C         -1.98015       -3.96660       -2.32519
C         -1.13008       -4.10277       -3.42721
H         -2.98501       -3.58934       -2.46993
C         -0.22546       -4.80741       -0.87530
C          0.61995       -4.94226       -1.98032
H          0.13618       -5.08716        0.10642
C          0.16880       -4.58926       -3.25478
H         -1.47844       -3.83160       -4.41534
H          1.62508       -5.32150       -1.84828
H          0.82518       -4.69455       -4.10887
C          0.38333        0.76766        1.36026
C          1.78700        0.57021        1.69514
C          1.49983       -0.86994        1.45845
O         -0.31568        1.76810        1.32701
O          2.20214       -2.01948        1.49889
C          2.65906        1.54211        2.04621
C          4.11514        1.43116        2.45183
H          2.22036        2.50859        1.99736
C          4.91821        0.11441        2.39122
C          4.40140       -0.88488        3.44516
H          4.48240       -0.43817        4.46002
H          4.97427       -1.83060        3.44312
H          3.34158       -1.13061        3.31692
C          6.28414        0.62838        2.81008
C          4.96427       -0.41751        0.94361
H          5.57796       -1.33029        0.84562
H          3.96539       -0.65565        0.55068
H          5.39432        0.35567        0.27021
N          4.86436        2.42977        2.85897
C          4.55466        3.85638        3.09722
C          3.12170        4.31595        3.14956
H          5.12127        4.44895        2.34620
H          4.95296        4.13556        4.09711
C          2.64229        5.23916        2.20311
C          1.31278        5.66737        2.24860
H          3.29541        5.61976        1.42762
C          2.25545        3.84478        4.15464
C          0.45448        5.18499        3.23993
H          0.94774        6.37291        1.51325
C          6.17822        1.96880        3.06441
C          7.27763        2.73356        3.47647
C          7.53089       -0.03547        2.96247
C          8.65634        0.73251        3.38083
C          8.51700        2.11003        3.63388
H          7.18840        3.79268        3.67374
H          9.36861        2.69929        3.95285
C          7.70305       -1.41301        2.71900
C          9.90623        0.11545        3.54091
C          8.95693       -2.00873        2.88270
H          6.88906       -2.03974        2.40486
C         10.05283       -1.24877        3.29120
H         10.76760        0.69127        3.85854
H          9.07904       -3.06711        2.69141
H         11.01979       -1.71907        3.41532
C          0.92518        4.27689        4.19314
H         -0.57521        5.51714        3.27028
H          0.25813        3.90708        4.96081
H          2.61081        3.13948        4.89549
